*SPEF "ieee 1481-1999"
*DESIGN "user_project_wrapper"
*DATE "11:11:11 Fri 11 11, 1111"
*VENDOR "OpenRCX"
*PROGRAM "Parallel Extraction"
*VERSION "1.0"
*DESIGN_FLOW "NAME_SCOPE LOCAL" "PIN_CAP NONE"
*DIVIDER /
*DELIMITER :
*BUS_DELIMITER []
*T_UNIT 1 NS
*C_UNIT 1 PF
*R_UNIT 1 OHM
*L_UNIT 1 HENRY

*NAME_MAP
*1 io_in[0]
*2 io_in[10]
*3 io_in[11]
*4 io_in[12]
*5 io_in[13]
*6 io_in[14]
*7 io_in[15]
*8 io_in[16]
*9 io_in[17]
*10 io_in[18]
*11 io_in[19]
*12 io_in[1]
*13 io_in[20]
*14 io_in[21]
*15 io_in[22]
*16 io_in[23]
*17 io_in[24]
*18 io_in[25]
*19 io_in[26]
*20 io_in[27]
*21 io_in[28]
*22 io_in[29]
*23 io_in[2]
*24 io_in[30]
*25 io_in[31]
*26 io_in[32]
*27 io_in[33]
*28 io_in[34]
*29 io_in[35]
*30 io_in[36]
*31 io_in[37]
*32 io_in[3]
*33 io_in[4]
*34 io_in[5]
*35 io_in[6]
*36 io_in[7]
*37 io_in[8]
*38 io_in[9]
*39 io_oeb[0]
*40 io_oeb[10]
*41 io_oeb[11]
*42 io_oeb[12]
*43 io_oeb[13]
*44 io_oeb[14]
*45 io_oeb[15]
*46 io_oeb[16]
*47 io_oeb[17]
*48 io_oeb[18]
*49 io_oeb[19]
*50 io_oeb[1]
*51 io_oeb[20]
*52 io_oeb[21]
*53 io_oeb[22]
*54 io_oeb[23]
*55 io_oeb[24]
*56 io_oeb[25]
*57 io_oeb[26]
*58 io_oeb[27]
*59 io_oeb[28]
*60 io_oeb[29]
*61 io_oeb[2]
*62 io_oeb[30]
*63 io_oeb[31]
*64 io_oeb[32]
*65 io_oeb[33]
*66 io_oeb[34]
*67 io_oeb[35]
*68 io_oeb[36]
*69 io_oeb[37]
*70 io_oeb[3]
*71 io_oeb[4]
*72 io_oeb[5]
*73 io_oeb[6]
*74 io_oeb[7]
*75 io_oeb[8]
*76 io_oeb[9]
*77 io_out[0]
*78 io_out[10]
*79 io_out[11]
*80 io_out[12]
*81 io_out[13]
*82 io_out[14]
*83 io_out[15]
*84 io_out[16]
*85 io_out[17]
*86 io_out[18]
*87 io_out[19]
*88 io_out[1]
*89 io_out[20]
*90 io_out[21]
*91 io_out[22]
*92 io_out[23]
*93 io_out[24]
*94 io_out[25]
*95 io_out[26]
*96 io_out[27]
*97 io_out[28]
*98 io_out[29]
*99 io_out[2]
*100 io_out[30]
*101 io_out[31]
*102 io_out[32]
*103 io_out[33]
*104 io_out[34]
*105 io_out[35]
*106 io_out[36]
*107 io_out[37]
*108 io_out[3]
*109 io_out[4]
*110 io_out[5]
*111 io_out[6]
*112 io_out[7]
*113 io_out[8]
*114 io_out[9]
*115 la_data_in[0]
*116 la_data_in[10]
*117 la_data_in[11]
*118 la_data_in[12]
*119 la_data_in[13]
*120 la_data_in[14]
*121 la_data_in[15]
*122 la_data_in[16]
*123 la_data_in[17]
*124 la_data_in[18]
*125 la_data_in[19]
*126 la_data_in[1]
*127 la_data_in[20]
*128 la_data_in[21]
*129 la_data_in[22]
*130 la_data_in[23]
*131 la_data_in[24]
*132 la_data_in[25]
*133 la_data_in[26]
*134 la_data_in[27]
*135 la_data_in[28]
*136 la_data_in[29]
*137 la_data_in[2]
*138 la_data_in[30]
*139 la_data_in[31]
*140 la_data_in[32]
*141 la_data_in[33]
*142 la_data_in[34]
*143 la_data_in[35]
*144 la_data_in[36]
*145 la_data_in[37]
*146 la_data_in[38]
*147 la_data_in[39]
*148 la_data_in[3]
*149 la_data_in[40]
*150 la_data_in[41]
*151 la_data_in[42]
*152 la_data_in[43]
*153 la_data_in[44]
*154 la_data_in[45]
*155 la_data_in[46]
*156 la_data_in[47]
*157 la_data_in[48]
*158 la_data_in[49]
*159 la_data_in[4]
*160 la_data_in[50]
*161 la_data_in[51]
*162 la_data_in[52]
*163 la_data_in[53]
*164 la_data_in[54]
*165 la_data_in[55]
*166 la_data_in[56]
*167 la_data_in[57]
*168 la_data_in[58]
*169 la_data_in[59]
*170 la_data_in[5]
*171 la_data_in[60]
*172 la_data_in[61]
*173 la_data_in[62]
*174 la_data_in[63]
*175 la_data_in[6]
*176 la_data_in[7]
*177 la_data_in[8]
*178 la_data_in[9]
*179 la_data_out[0]
*180 la_data_out[10]
*181 la_data_out[11]
*182 la_data_out[12]
*183 la_data_out[13]
*184 la_data_out[14]
*185 la_data_out[15]
*186 la_data_out[16]
*187 la_data_out[17]
*188 la_data_out[18]
*189 la_data_out[19]
*190 la_data_out[1]
*191 la_data_out[20]
*192 la_data_out[21]
*193 la_data_out[22]
*194 la_data_out[23]
*195 la_data_out[24]
*196 la_data_out[25]
*197 la_data_out[26]
*198 la_data_out[27]
*199 la_data_out[28]
*200 la_data_out[29]
*201 la_data_out[2]
*202 la_data_out[30]
*203 la_data_out[31]
*204 la_data_out[32]
*205 la_data_out[33]
*206 la_data_out[34]
*207 la_data_out[35]
*208 la_data_out[36]
*209 la_data_out[37]
*210 la_data_out[38]
*211 la_data_out[39]
*212 la_data_out[3]
*213 la_data_out[40]
*214 la_data_out[41]
*215 la_data_out[42]
*216 la_data_out[43]
*217 la_data_out[44]
*218 la_data_out[45]
*219 la_data_out[46]
*220 la_data_out[47]
*221 la_data_out[48]
*222 la_data_out[49]
*223 la_data_out[4]
*224 la_data_out[50]
*225 la_data_out[51]
*226 la_data_out[52]
*227 la_data_out[53]
*228 la_data_out[54]
*229 la_data_out[55]
*230 la_data_out[56]
*231 la_data_out[57]
*232 la_data_out[58]
*233 la_data_out[59]
*234 la_data_out[5]
*235 la_data_out[60]
*236 la_data_out[61]
*237 la_data_out[62]
*238 la_data_out[63]
*239 la_data_out[6]
*240 la_data_out[7]
*241 la_data_out[8]
*242 la_data_out[9]
*243 la_oenb[0]
*244 la_oenb[10]
*245 la_oenb[11]
*246 la_oenb[12]
*247 la_oenb[13]
*248 la_oenb[14]
*249 la_oenb[15]
*250 la_oenb[16]
*251 la_oenb[17]
*252 la_oenb[18]
*253 la_oenb[19]
*254 la_oenb[1]
*255 la_oenb[20]
*256 la_oenb[21]
*257 la_oenb[22]
*258 la_oenb[23]
*259 la_oenb[24]
*260 la_oenb[25]
*261 la_oenb[26]
*262 la_oenb[27]
*263 la_oenb[28]
*264 la_oenb[29]
*265 la_oenb[2]
*266 la_oenb[30]
*267 la_oenb[31]
*268 la_oenb[32]
*269 la_oenb[33]
*270 la_oenb[34]
*271 la_oenb[35]
*272 la_oenb[36]
*273 la_oenb[37]
*274 la_oenb[38]
*275 la_oenb[39]
*276 la_oenb[3]
*277 la_oenb[40]
*278 la_oenb[41]
*279 la_oenb[42]
*280 la_oenb[43]
*281 la_oenb[44]
*282 la_oenb[45]
*283 la_oenb[46]
*284 la_oenb[47]
*285 la_oenb[48]
*286 la_oenb[49]
*287 la_oenb[4]
*288 la_oenb[50]
*289 la_oenb[51]
*290 la_oenb[52]
*291 la_oenb[53]
*292 la_oenb[54]
*293 la_oenb[55]
*294 la_oenb[56]
*295 la_oenb[57]
*296 la_oenb[58]
*297 la_oenb[59]
*298 la_oenb[5]
*299 la_oenb[60]
*300 la_oenb[61]
*301 la_oenb[62]
*302 la_oenb[63]
*303 la_oenb[6]
*304 la_oenb[7]
*305 la_oenb[8]
*306 la_oenb[9]
*307 user_clock2
*308 user_irq[0]
*309 user_irq[1]
*310 user_irq[2]
*313 wb_clk_i
*314 wb_rst_i
*315 wbs_ack_o
*316 wbs_adr_i[0]
*317 wbs_adr_i[10]
*318 wbs_adr_i[11]
*319 wbs_adr_i[12]
*320 wbs_adr_i[13]
*321 wbs_adr_i[14]
*322 wbs_adr_i[15]
*323 wbs_adr_i[16]
*324 wbs_adr_i[17]
*325 wbs_adr_i[18]
*326 wbs_adr_i[19]
*327 wbs_adr_i[1]
*328 wbs_adr_i[20]
*329 wbs_adr_i[21]
*330 wbs_adr_i[22]
*331 wbs_adr_i[23]
*332 wbs_adr_i[24]
*333 wbs_adr_i[25]
*334 wbs_adr_i[26]
*335 wbs_adr_i[27]
*336 wbs_adr_i[28]
*337 wbs_adr_i[29]
*338 wbs_adr_i[2]
*339 wbs_adr_i[30]
*340 wbs_adr_i[31]
*341 wbs_adr_i[3]
*342 wbs_adr_i[4]
*343 wbs_adr_i[5]
*344 wbs_adr_i[6]
*345 wbs_adr_i[7]
*346 wbs_adr_i[8]
*347 wbs_adr_i[9]
*348 wbs_cyc_i
*349 wbs_dat_i[0]
*350 wbs_dat_i[10]
*351 wbs_dat_i[11]
*352 wbs_dat_i[12]
*353 wbs_dat_i[13]
*354 wbs_dat_i[14]
*355 wbs_dat_i[15]
*356 wbs_dat_i[16]
*357 wbs_dat_i[17]
*358 wbs_dat_i[18]
*359 wbs_dat_i[19]
*360 wbs_dat_i[1]
*361 wbs_dat_i[20]
*362 wbs_dat_i[21]
*363 wbs_dat_i[22]
*364 wbs_dat_i[23]
*365 wbs_dat_i[24]
*366 wbs_dat_i[25]
*367 wbs_dat_i[26]
*368 wbs_dat_i[27]
*369 wbs_dat_i[28]
*370 wbs_dat_i[29]
*371 wbs_dat_i[2]
*372 wbs_dat_i[30]
*373 wbs_dat_i[31]
*374 wbs_dat_i[3]
*375 wbs_dat_i[4]
*376 wbs_dat_i[5]
*377 wbs_dat_i[6]
*378 wbs_dat_i[7]
*379 wbs_dat_i[8]
*380 wbs_dat_i[9]
*381 wbs_dat_o[0]
*382 wbs_dat_o[10]
*383 wbs_dat_o[11]
*384 wbs_dat_o[12]
*385 wbs_dat_o[13]
*386 wbs_dat_o[14]
*387 wbs_dat_o[15]
*388 wbs_dat_o[16]
*389 wbs_dat_o[17]
*390 wbs_dat_o[18]
*391 wbs_dat_o[19]
*392 wbs_dat_o[1]
*393 wbs_dat_o[20]
*394 wbs_dat_o[21]
*395 wbs_dat_o[22]
*396 wbs_dat_o[23]
*397 wbs_dat_o[24]
*398 wbs_dat_o[25]
*399 wbs_dat_o[26]
*400 wbs_dat_o[27]
*401 wbs_dat_o[28]
*402 wbs_dat_o[29]
*403 wbs_dat_o[2]
*404 wbs_dat_o[30]
*405 wbs_dat_o[31]
*406 wbs_dat_o[3]
*407 wbs_dat_o[4]
*408 wbs_dat_o[5]
*409 wbs_dat_o[6]
*410 wbs_dat_o[7]
*411 wbs_dat_o[8]
*412 wbs_dat_o[9]
*413 wbs_sel_i[0]
*414 wbs_sel_i[1]
*415 wbs_sel_i[2]
*416 wbs_sel_i[3]
*417 wbs_stb_i
*418 wbs_we_i
*419 wrapped_mppt

*PORTS
io_in[0] I
io_in[10] I
io_in[11] I
io_in[12] I
io_in[13] I
io_in[14] I
io_in[15] I
io_in[16] I
io_in[17] I
io_in[18] I
io_in[19] I
io_in[1] I
io_in[20] I
io_in[21] I
io_in[22] I
io_in[23] I
io_in[24] I
io_in[25] I
io_in[26] I
io_in[27] I
io_in[28] I
io_in[29] I
io_in[2] I
io_in[30] I
io_in[31] I
io_in[32] I
io_in[33] I
io_in[34] I
io_in[35] I
io_in[36] I
io_in[37] I
io_in[3] I
io_in[4] I
io_in[5] I
io_in[6] I
io_in[7] I
io_in[8] I
io_in[9] I
io_oeb[0] O
io_oeb[10] O
io_oeb[11] O
io_oeb[12] O
io_oeb[13] O
io_oeb[14] O
io_oeb[15] O
io_oeb[16] O
io_oeb[17] O
io_oeb[18] O
io_oeb[19] O
io_oeb[1] O
io_oeb[20] O
io_oeb[21] O
io_oeb[22] O
io_oeb[23] O
io_oeb[24] O
io_oeb[25] O
io_oeb[26] O
io_oeb[27] O
io_oeb[28] O
io_oeb[29] O
io_oeb[2] O
io_oeb[30] O
io_oeb[31] O
io_oeb[32] O
io_oeb[33] O
io_oeb[34] O
io_oeb[35] O
io_oeb[36] O
io_oeb[37] O
io_oeb[3] O
io_oeb[4] O
io_oeb[5] O
io_oeb[6] O
io_oeb[7] O
io_oeb[8] O
io_oeb[9] O
io_out[0] O
io_out[10] O
io_out[11] O
io_out[12] O
io_out[13] O
io_out[14] O
io_out[15] O
io_out[16] O
io_out[17] O
io_out[18] O
io_out[19] O
io_out[1] O
io_out[20] O
io_out[21] O
io_out[22] O
io_out[23] O
io_out[24] O
io_out[25] O
io_out[26] O
io_out[27] O
io_out[28] O
io_out[29] O
io_out[2] O
io_out[30] O
io_out[31] O
io_out[32] O
io_out[33] O
io_out[34] O
io_out[35] O
io_out[36] O
io_out[37] O
io_out[3] O
io_out[4] O
io_out[5] O
io_out[6] O
io_out[7] O
io_out[8] O
io_out[9] O
la_data_in[0] I
la_data_in[10] I
la_data_in[11] I
la_data_in[12] I
la_data_in[13] I
la_data_in[14] I
la_data_in[15] I
la_data_in[16] I
la_data_in[17] I
la_data_in[18] I
la_data_in[19] I
la_data_in[1] I
la_data_in[20] I
la_data_in[21] I
la_data_in[22] I
la_data_in[23] I
la_data_in[24] I
la_data_in[25] I
la_data_in[26] I
la_data_in[27] I
la_data_in[28] I
la_data_in[29] I
la_data_in[2] I
la_data_in[30] I
la_data_in[31] I
la_data_in[32] I
la_data_in[33] I
la_data_in[34] I
la_data_in[35] I
la_data_in[36] I
la_data_in[37] I
la_data_in[38] I
la_data_in[39] I
la_data_in[3] I
la_data_in[40] I
la_data_in[41] I
la_data_in[42] I
la_data_in[43] I
la_data_in[44] I
la_data_in[45] I
la_data_in[46] I
la_data_in[47] I
la_data_in[48] I
la_data_in[49] I
la_data_in[4] I
la_data_in[50] I
la_data_in[51] I
la_data_in[52] I
la_data_in[53] I
la_data_in[54] I
la_data_in[55] I
la_data_in[56] I
la_data_in[57] I
la_data_in[58] I
la_data_in[59] I
la_data_in[5] I
la_data_in[60] I
la_data_in[61] I
la_data_in[62] I
la_data_in[63] I
la_data_in[6] I
la_data_in[7] I
la_data_in[8] I
la_data_in[9] I
la_data_out[0] O
la_data_out[10] O
la_data_out[11] O
la_data_out[12] O
la_data_out[13] O
la_data_out[14] O
la_data_out[15] O
la_data_out[16] O
la_data_out[17] O
la_data_out[18] O
la_data_out[19] O
la_data_out[1] O
la_data_out[20] O
la_data_out[21] O
la_data_out[22] O
la_data_out[23] O
la_data_out[24] O
la_data_out[25] O
la_data_out[26] O
la_data_out[27] O
la_data_out[28] O
la_data_out[29] O
la_data_out[2] O
la_data_out[30] O
la_data_out[31] O
la_data_out[32] O
la_data_out[33] O
la_data_out[34] O
la_data_out[35] O
la_data_out[36] O
la_data_out[37] O
la_data_out[38] O
la_data_out[39] O
la_data_out[3] O
la_data_out[40] O
la_data_out[41] O
la_data_out[42] O
la_data_out[43] O
la_data_out[44] O
la_data_out[45] O
la_data_out[46] O
la_data_out[47] O
la_data_out[48] O
la_data_out[49] O
la_data_out[4] O
la_data_out[50] O
la_data_out[51] O
la_data_out[52] O
la_data_out[53] O
la_data_out[54] O
la_data_out[55] O
la_data_out[56] O
la_data_out[57] O
la_data_out[58] O
la_data_out[59] O
la_data_out[5] O
la_data_out[60] O
la_data_out[61] O
la_data_out[62] O
la_data_out[63] O
la_data_out[6] O
la_data_out[7] O
la_data_out[8] O
la_data_out[9] O
la_oenb[0] I
la_oenb[10] I
la_oenb[11] I
la_oenb[12] I
la_oenb[13] I
la_oenb[14] I
la_oenb[15] I
la_oenb[16] I
la_oenb[17] I
la_oenb[18] I
la_oenb[19] I
la_oenb[1] I
la_oenb[20] I
la_oenb[21] I
la_oenb[22] I
la_oenb[23] I
la_oenb[24] I
la_oenb[25] I
la_oenb[26] I
la_oenb[27] I
la_oenb[28] I
la_oenb[29] I
la_oenb[2] I
la_oenb[30] I
la_oenb[31] I
la_oenb[32] I
la_oenb[33] I
la_oenb[34] I
la_oenb[35] I
la_oenb[36] I
la_oenb[37] I
la_oenb[38] I
la_oenb[39] I
la_oenb[3] I
la_oenb[40] I
la_oenb[41] I
la_oenb[42] I
la_oenb[43] I
la_oenb[44] I
la_oenb[45] I
la_oenb[46] I
la_oenb[47] I
la_oenb[48] I
la_oenb[49] I
la_oenb[4] I
la_oenb[50] I
la_oenb[51] I
la_oenb[52] I
la_oenb[53] I
la_oenb[54] I
la_oenb[55] I
la_oenb[56] I
la_oenb[57] I
la_oenb[58] I
la_oenb[59] I
la_oenb[5] I
la_oenb[60] I
la_oenb[61] I
la_oenb[62] I
la_oenb[63] I
la_oenb[6] I
la_oenb[7] I
la_oenb[8] I
la_oenb[9] I
user_clock2 I
user_irq[0] O
user_irq[1] O
user_irq[2] O
wb_clk_i I
wb_rst_i I
wbs_ack_o O
wbs_adr_i[0] I
wbs_adr_i[10] I
wbs_adr_i[11] I
wbs_adr_i[12] I
wbs_adr_i[13] I
wbs_adr_i[14] I
wbs_adr_i[15] I
wbs_adr_i[16] I
wbs_adr_i[17] I
wbs_adr_i[18] I
wbs_adr_i[19] I
wbs_adr_i[1] I
wbs_adr_i[20] I
wbs_adr_i[21] I
wbs_adr_i[22] I
wbs_adr_i[23] I
wbs_adr_i[24] I
wbs_adr_i[25] I
wbs_adr_i[26] I
wbs_adr_i[27] I
wbs_adr_i[28] I
wbs_adr_i[29] I
wbs_adr_i[2] I
wbs_adr_i[30] I
wbs_adr_i[31] I
wbs_adr_i[3] I
wbs_adr_i[4] I
wbs_adr_i[5] I
wbs_adr_i[6] I
wbs_adr_i[7] I
wbs_adr_i[8] I
wbs_adr_i[9] I
wbs_cyc_i I
wbs_dat_i[0] I
wbs_dat_i[10] I
wbs_dat_i[11] I
wbs_dat_i[12] I
wbs_dat_i[13] I
wbs_dat_i[14] I
wbs_dat_i[15] I
wbs_dat_i[16] I
wbs_dat_i[17] I
wbs_dat_i[18] I
wbs_dat_i[19] I
wbs_dat_i[1] I
wbs_dat_i[20] I
wbs_dat_i[21] I
wbs_dat_i[22] I
wbs_dat_i[23] I
wbs_dat_i[24] I
wbs_dat_i[25] I
wbs_dat_i[26] I
wbs_dat_i[27] I
wbs_dat_i[28] I
wbs_dat_i[29] I
wbs_dat_i[2] I
wbs_dat_i[30] I
wbs_dat_i[31] I
wbs_dat_i[3] I
wbs_dat_i[4] I
wbs_dat_i[5] I
wbs_dat_i[6] I
wbs_dat_i[7] I
wbs_dat_i[8] I
wbs_dat_i[9] I
wbs_dat_o[0] O
wbs_dat_o[10] O
wbs_dat_o[11] O
wbs_dat_o[12] O
wbs_dat_o[13] O
wbs_dat_o[14] O
wbs_dat_o[15] O
wbs_dat_o[16] O
wbs_dat_o[17] O
wbs_dat_o[18] O
wbs_dat_o[19] O
wbs_dat_o[1] O
wbs_dat_o[20] O
wbs_dat_o[21] O
wbs_dat_o[22] O
wbs_dat_o[23] O
wbs_dat_o[24] O
wbs_dat_o[25] O
wbs_dat_o[26] O
wbs_dat_o[27] O
wbs_dat_o[28] O
wbs_dat_o[29] O
wbs_dat_o[2] O
wbs_dat_o[30] O
wbs_dat_o[31] O
wbs_dat_o[3] O
wbs_dat_o[4] O
wbs_dat_o[5] O
wbs_dat_o[6] O
wbs_dat_o[7] O
wbs_dat_o[8] O
wbs_dat_o[9] O
wbs_sel_i[0] I
wbs_sel_i[1] I
wbs_sel_i[2] I
wbs_sel_i[3] I
wbs_stb_i I
wbs_we_i I

*D_NET *1 0.256344
*CONN
*P io_in[0] I
*I *419:io_in[0] I *D wrapped_mppt
*CAP
1 io_in[0] 0.069484
2 *419:io_in[0] 5.96769e-05
3 *1:8 0.0255641
4 *1:7 0.0255044
5 *1:5 0.069484
6 *1:5 *69:11 0.055269
7 *1:5 *223:14 0
8 *1:8 *39:8 0.0109794
*RES
1 io_in[0] *1:5 767.925 
2 *1:5 *1:7 4.5 
3 *1:7 *1:8 356.49 
4 *1:8 *419:io_in[0] 9.585 
*END

*D_NET *2 0.385251
*CONN
*P io_in[10] I
*I *419:io_in[10] I *D wrapped_mppt
*CAP
1 io_in[10] 0.000239227
2 *419:io_in[10] 0.000428782
3 *2:11 0.0650946
4 *2:10 0.0646658
5 *2:8 0.0155523
6 *2:7 0.0157915
7 *419:io_in[10] *40:7 0.000881637
8 *419:io_in[10] *76:9 0
9 *419:io_in[10] *114:7 0.000666822
10 *2:8 *3:8 0.187012
11 *2:11 io_oeb[5] 0
12 *2:11 *419:io_in[15] 0
13 *2:11 *419:io_in[16] 0
14 *2:11 *419:io_in[18] 0
15 *2:11 *419:io_in[29] 0
16 *2:11 *419:io_in[30] 0
17 *2:11 *419:io_in[9] 0
18 *2:11 *51:8 0.0159568
19 *2:11 *57:12 0
20 *2:11 *58:12 0
21 *2:11 *91:8 0.0189616
*RES
1 io_in[10] *2:7 6.525 
2 *2:7 *2:8 276.93 
3 *2:8 *2:10 4.5 
4 *2:10 *2:11 743.85 
5 *2:11 *419:io_in[10] 13.365 
*END

*D_NET *3 0.631801
*CONN
*P io_in[11] I
*I *419:io_in[11] I *D wrapped_mppt
*CAP
1 io_in[11] 0.0002694
2 *419:io_in[11] 0.000809982
3 *3:11 0.0630275
4 *3:10 0.0622176
5 *3:8 0.00531926
6 *3:7 0.00558866
7 *419:io_in[11] *41:15 0.00116358
8 *419:io_in[11] *78:9 0.000152161
9 *419:io_in[11] *78:11 3.45239e-05
10 *419:io_in[11] *79:7 0
11 *3:8 *4:8 0.22887
12 *3:8 *5:8 0.0226476
13 *3:11 *419:io_in[14] 0
14 *3:11 *16:14 0
15 *3:11 *52:10 0
16 *3:11 *62:8 0.0291576
17 *3:11 *89:8 0.025531
18 *2:8 *3:8 0.187012
*RES
1 io_in[11] *3:7 6.705 
2 *3:7 *3:8 338.31 
3 *3:8 *3:10 4.5 
4 *3:10 *3:11 741.87 
5 *3:11 *419:io_in[11] 16.515 
*END

*D_NET *4 0.453043
*CONN
*P io_in[12] I
*I *419:io_in[12] I *D wrapped_mppt
*CAP
1 io_in[12] 0.000285313
2 *419:io_in[12] 0.000538405
3 *4:11 0.0663007
4 *4:10 0.0657623
5 *4:8 0.022482
6 *4:7 0.0227673
7 *419:io_in[12] *38:12 7.36509e-05
8 *419:io_in[12] *42:9 0.00104262
9 *419:io_in[12] *79:7 0.0075799
10 *4:8 *5:8 0.0146074
11 *4:11 *44:8 0.00323282
12 *4:11 *54:8 0.0173454
13 *4:11 *96:8 0.00215521
14 *3:8 *4:8 0.22887
*RES
1 io_in[12] *4:7 6.885 
2 *4:7 *4:8 399.87 
3 *4:8 *4:10 4.5 
4 *4:10 *4:11 739.71 
5 *4:11 *419:io_in[12] 19.575 
*END

*D_NET *5 0.308737
*CONN
*P io_in[13] I
*I *419:io_in[13] I *D wrapped_mppt
*CAP
1 io_in[13] 0.000239227
2 *419:io_in[13] 7.19455e-05
3 *5:14 0.0291998
4 *5:13 0.0291279
5 *5:11 0.0753447
6 *5:10 0.0753447
7 *5:8 0.0120623
8 *5:7 0.0123015
9 *419:io_in[13] *43:9 0.000378484
10 *419:io_in[13] *80:7 0.000156636
11 *5:14 *38:12 0
12 *5:14 *43:9 3.68254e-05
13 *5:14 *57:19 0
14 *5:14 *80:7 0.00106794
15 *5:14 *81:13 0.0361503
16 *3:8 *5:8 0.0226476
17 *4:8 *5:8 0.0146074
*RES
1 io_in[13] *5:7 6.525 
2 *5:7 *5:8 161.73 
3 *5:8 *5:10 4.5 
4 *5:10 *5:11 737.55 
5 *5:11 *5:13 4.5 
6 *5:13 *5:14 315.09 
7 *5:14 *419:io_in[13] 1.935 
*END

*D_NET *6 0.246832
*CONN
*P io_in[14] I
*I *419:io_in[14] I *D wrapped_mppt
*CAP
1 io_in[14] 0.00395713
2 *419:io_in[14] 0.000790776
3 *6:12 0.0535574
4 *6:11 0.0527666
5 *6:9 0.0634341
6 *6:7 0.0673913
7 *419:io_in[14] *16:14 0.000393741
8 *419:io_in[14] *43:9 0
9 *419:io_in[14] *44:7 0.000192439
10 *419:io_in[14] *45:15 0.00186173
11 *419:io_in[14] *81:12 6.90477e-05
12 *6:12 *45:15 0
13 *6:12 *82:9 0.0024182
14 *6:12 *83:11 0
15 *3:11 *419:io_in[14] 0
*RES
1 io_in[14] *6:7 43.425 
2 *6:7 *6:9 692.64 
3 *6:9 *6:11 4.5 
4 *6:11 *6:12 532.17 
5 *6:12 *419:io_in[14] 20.835 
*END

*D_NET *7 0.652132
*CONN
*P io_in[15] I
*I *419:io_in[15] I *D wrapped_mppt
*CAP
1 io_in[15] 0.000255689
2 *419:io_in[15] 0.000635731
3 *7:11 0.0581262
4 *7:10 0.0574904
5 *7:8 0.0482958
6 *7:7 0.0485515
7 *419:io_in[15] *419:io_in[16] 0.000310849
8 *419:io_in[15] *45:15 0.000460318
9 *419:io_in[15] *82:9 0.000253175
10 *419:io_in[15] *83:11 0.000299207
11 *419:io_in[15] *114:8 0.000181328
12 *7:8 *8:8 0.415974
13 *7:11 io_oeb[21] 0
14 *7:11 *46:13 0.0212974
15 *7:11 *52:11 0
16 *7:11 *83:11 0
17 *7:11 *84:11 0
18 *2:11 *419:io_in[15] 0
*RES
1 io_in[15] *7:7 6.885 
2 *7:7 *7:8 714.51 
3 *7:8 *7:10 4.5 
4 *7:10 *7:11 586.17 
5 *7:11 *419:io_in[15] 18.675 
*END

*D_NET *8 0.913549
*CONN
*P io_in[16] I
*I *419:io_in[16] I *D wrapped_mppt
*CAP
1 io_in[16] 0.000236467
2 *419:io_in[16] 0.000954035
3 *8:11 0.0585981
4 *8:10 0.0576441
5 *8:8 0.016855
6 *8:7 0.0170915
7 *419:io_in[16] *419:io_in[19] 0.00062143
8 *419:io_in[16] *46:13 0.0021929
9 *419:io_in[16] *48:9 0.00115386
10 *419:io_in[16] *83:11 0.000669763
11 *419:io_in[16] *86:12 0.000992335
12 *419:io_in[16] *114:8 0.000783338
13 *8:8 *9:8 0.338387
14 *8:11 *419:io_in[19] 0.00014321
15 *8:11 *48:9 0.000939817
16 *8:11 *49:9 0
17 *8:11 *86:13 0
18 *419:io_in[15] *419:io_in[16] 0.000310849
19 *2:11 *419:io_in[16] 0
20 *7:8 *8:8 0.415974
*RES
1 io_in[16] *8:7 6.705 
2 *8:7 *8:8 602.19 
3 *8:8 *8:10 4.5 
4 *8:10 *8:11 578.16 
5 *8:11 *419:io_in[16] 31.095 
*END

*D_NET *9 0.533319
*CONN
*P io_in[17] I
*I *419:io_in[17] I *D wrapped_mppt
*CAP
1 io_in[17] 0.000227382
2 *419:io_in[17] 0.000621499
3 *9:11 0.0571852
4 *9:10 0.0565637
5 *9:8 0.0299363
6 *9:7 0.0301637
7 *419:io_in[17] *47:9 0.00127866
8 *419:io_in[17] *84:9 9.20637e-05
9 *419:io_in[17] *84:11 0.000159577
10 *419:io_in[17] *85:13 0.000920637
11 *419:io_in[17] *87:10 0.00205138
12 *419:io_in[17] *102:8 0.00120605
13 *9:11 *419:io_in[21] 0.00394851
14 *9:11 *87:11 0.0105771
15 *8:8 *9:8 0.338387
*RES
1 io_in[17] *9:7 6.525 
2 *9:7 *9:8 489.87 
3 *9:8 *9:10 4.5 
4 *9:10 *9:11 588.33 
5 *9:11 *419:io_in[17] 23.355 
*END

*D_NET *10 0.228484
*CONN
*P io_in[18] I
*I *419:io_in[18] I *D wrapped_mppt
*CAP
1 io_in[18] 0.000681312
2 *419:io_in[18] 0.00122855
3 *10:11 0.0561538
4 *10:10 0.0549252
5 *10:8 0.033168
6 *10:7 0.0338493
7 *419:io_in[18] *47:9 0
8 *419:io_in[18] *48:9 0.00172875
9 *419:io_in[18] *85:13 5.67725e-05
10 *419:io_in[18] *86:12 0.000808207
11 *419:io_in[18] *86:13 0.000184127
12 *419:io_in[18] *114:8 0.000629443
13 *10:7 *45:19 1.22751e-05
14 *10:8 io_oeb[20] 0.017221
15 *10:8 io_out[21] 0.0108797
16 *10:8 *14:10 0
17 *10:11 *53:9 0.00840847
18 *10:11 *90:11 0.0084315
19 *10:11 *91:7 0.000117381
20 *2:11 *419:io_in[18] 0
*RES
1 io_in[18] *10:7 11.025 
2 *10:7 *10:8 380.25 
3 *10:8 *10:10 4.5 
4 *10:10 *10:11 581.85 
5 *10:11 *419:io_in[18] 25.875 
*END

*D_NET *11 0.194638
*CONN
*P io_in[19] I
*I *419:io_in[19] I *D wrapped_mppt
*CAP
1 io_in[19] 0.000224243
2 *419:io_in[19] 0.000720285
3 *11:16 0.027705
4 *11:15 0.0269848
5 *11:13 0.0580416
6 *11:11 0.0582659
7 *419:io_in[19] *49:9 0.00169167
8 *419:io_in[19] *86:12 0.000742903
9 *11:16 *22:11 0.0136121
10 *11:16 *74:10 0.00588477
11 *419:io_in[16] *419:io_in[19] 0.00062143
12 *8:11 *419:io_in[19] 0.00014321
*RES
1 io_in[19] *11:11 2.475 
2 *11:11 *11:13 578.97 
3 *11:13 *11:15 4.5 
4 *11:15 *11:16 278.91 
5 *11:16 *419:io_in[19] 21.915 
*END

*D_NET *12 0.23544
*CONN
*P io_in[1] I
*I *419:io_in[1] I *D wrapped_mppt
*CAP
1 io_in[1] 0.000280649
2 *419:io_in[1] 5.11494e-05
3 *12:16 0.0144876
4 *12:15 0.0144364
5 *12:13 0.0714804
6 *12:11 0.0717611
7 *419:io_in[1] *28:11 0.000186509
8 *419:io_in[1] *77:7 0.000186509
9 *12:13 *222:16 0
10 *12:16 *50:8 0.0581682
11 *12:16 *77:8 0.00440125
*RES
1 io_in[1] *12:11 2.655 
2 *12:11 *12:13 764.73 
3 *12:13 *12:15 4.5 
4 *12:15 *12:16 294.39 
5 *12:16 *419:io_in[1] 9.675 
*END

*D_NET *13 0.162273
*CONN
*P io_in[20] I
*I *419:io_in[20] I *D wrapped_mppt
*CAP
1 io_in[20] 0.00435543
2 *419:io_in[20] 0.00182634
3 *13:12 0.0160992
4 *13:11 0.0142729
5 *13:9 0.0534502
6 *13:7 0.0578056
7 *419:io_in[20] *49:9 0
8 *419:io_in[20] *51:7 0.000314551
9 *419:io_in[20] *87:10 0.00123774
10 *419:io_in[20] *89:7 0
11 *13:12 *53:10 0.00354368
12 *13:12 *76:10 0.0093669
*RES
1 io_in[20] *13:7 43.245 
2 *13:7 *13:9 533.34 
3 *13:9 *13:11 4.5 
4 *13:11 *13:12 171.45 
5 *13:12 *419:io_in[20] 24.615 
*END

*D_NET *14 0.149241
*CONN
*P io_in[21] I
*I *419:io_in[21] I *D wrapped_mppt
*CAP
1 io_in[21] 0.0011679
2 *419:io_in[21] 0.00127085
3 *14:14 0.00472927
4 *14:13 0.00345842
5 *14:11 0.0566416
6 *14:10 0.0578095
7 *419:io_in[21] *52:10 0.000182593
8 *419:io_in[21] *87:11 1.79013e-05
9 *419:io_in[21] *89:7 0.00271076
10 *14:14 *49:10 0.0120195
11 *14:14 *93:14 0.00528443
12 *9:11 *419:io_in[21] 0.00394851
13 *10:8 *14:10 0
*RES
1 io_in[21] *14:10 19.575 
2 *14:10 *14:11 565.29 
3 *14:11 *14:13 4.5 
4 *14:13 *14:14 59.85 
5 *14:14 *419:io_in[21] 27.855 
*END

*D_NET *15 0.151078
*CONN
*P io_in[22] I
*I *419:io_in[22] I *D wrapped_mppt
*CAP
1 io_in[22] 0.000950112
2 *419:io_in[22] 0.00033372
3 *15:14 0.00281668
4 *15:11 0.0601599
5 *15:10 0.058627
6 *419:io_in[22] *53:9 0.0027926
7 *419:io_in[22] *90:9 0.0027926
8 *15:10 *16:11 0
9 *15:14 *419:io_in[8] 0.0045384
10 *15:14 *42:10 0.0147342
11 *15:14 *62:8 0.00333229
*RES
1 io_in[22] *15:10 18.315 
2 *15:10 *15:11 575.91 
3 *15:11 *15:14 49.95 
4 *15:14 *419:io_in[22] 16.785 
*END

*D_NET *16 0.169859
*CONN
*P io_in[23] I
*I *419:io_in[23] I *D wrapped_mppt
*CAP
1 io_in[23] 0.000671366
2 *419:io_in[23] 0.000440402
3 *16:14 0.00304544
4 *16:13 0.00260504
5 *16:11 0.0580607
6 *16:10 0.0580607
7 *16:8 0.00970289
8 *16:7 0.0103743
9 *419:io_in[23] *54:7 0.000971144
10 *419:io_in[23] *91:7 0.000899539
11 *16:8 io_oeb[22] 0
12 *16:8 io_out[22] 0
13 *16:14 *419:io_in[7] 0.00230017
14 *16:14 *40:8 0.0189617
15 *16:14 *52:10 0.00140503
16 *16:14 *91:8 0.0019674
17 *419:io_in[14] *16:14 0.000393741
18 *3:11 *16:14 0
19 *15:10 *16:11 0
*RES
1 io_in[23] *16:7 11.025 
2 *16:7 *16:8 105.57 
3 *16:8 *16:10 4.5 
4 *16:10 *16:11 579.69 
5 *16:11 *16:13 4.5 
6 *16:13 *16:14 50.31 
7 *16:14 *419:io_in[23] 14.265 
*END

*D_NET *17 0.182198
*CONN
*P io_in[24] I
*I *419:io_in[24] I *D wrapped_mppt
*CAP
1 io_in[24] 0.0184249
2 *419:io_in[24] 0.000764974
3 *17:11 0.00360863
4 *17:10 0.00284365
5 *17:8 0.056859
6 *17:7 0.056859
7 *17:5 0.0184249
8 *419:io_in[24] *55:9 0.00340636
9 *419:io_in[24] *92:9 0.000510953
10 *17:11 *44:8 0.0144856
11 *17:11 *96:8 0.00600973
*RES
1 io_in[24] *17:5 200.565 
2 *17:5 *17:7 4.5 
3 *17:7 *17:8 567.81 
4 *17:8 *17:10 4.5 
5 *17:10 *17:11 47.07 
6 *17:11 *419:io_in[24] 19.485 
*END

*D_NET *18 0.17695
*CONN
*P io_in[25] I
*I *419:io_in[25] I *D wrapped_mppt
*CAP
1 io_in[25] 0.000237175
2 *419:io_in[25] 0.00154236
3 *18:19 0.00512703
4 *18:16 0.052083
5 *18:15 0.0484983
6 *18:13 0.0187038
7 *18:11 0.0189409
8 *419:io_in[25] *43:13 8.28572e-05
9 *419:io_in[25] *55:9 0.00988149
10 *419:io_in[25] *56:9 0.000313272
11 *419:io_in[25] *92:9 0
12 *419:io_in[25] *93:13 0.00692957
13 *18:19 *35:13 0
14 *18:19 *82:10 0.0146099
*RES
1 io_in[25] *18:11 2.295 
2 *18:11 *18:13 203.31 
3 *18:13 *18:15 4.5 
4 *18:15 *18:16 484.65 
5 *18:16 *18:19 49.41 
6 *18:19 *419:io_in[25] 43.6089 
*END

*D_NET *19 0.165701
*CONN
*P io_in[26] I
*I *419:io_in[26] I *D wrapped_mppt
*CAP
1 io_in[26] 0.00010158
2 *419:io_in[26] 0.00218041
3 *19:19 0.00478641
4 *19:18 0.002606
5 *19:16 0.0411815
6 *19:15 0.0411815
7 *19:13 0.0189802
8 *19:11 0.0190818
9 *419:io_in[26] *57:12 0.000742903
10 *419:io_in[26] *94:9 0.00333859
11 *19:16 *111:13 0
12 *19:19 *95:10 0.0315201
*RES
1 io_in[26] *19:11 1.215 
2 *19:11 *19:13 206.01 
3 *19:13 *19:15 4.5 
4 *19:15 *19:16 411.57 
5 *19:16 *19:18 4.5 
6 *19:18 *19:19 45.63 
7 *19:19 *419:io_in[26] 38.475 
*END

*D_NET *20 0.143671
*CONN
*P io_in[27] I
*I *419:io_in[27] I *D wrapped_mppt
*CAP
1 io_in[27] 0.000310538
2 *419:io_in[27] 0.000816116
3 *20:16 0.0357018
4 *20:15 0.0348857
5 *20:13 0.0261523
6 *20:11 0.0264628
7 *419:io_in[27] *419:io_in[29] 0
8 *419:io_in[27] *58:12 0.00168783
9 *419:io_in[27] *95:9 0.00304628
10 *419:io_in[27] *96:7 0
11 *20:16 *58:15 0.00245503
12 *20:16 *95:9 0.0121524
*RES
1 io_in[27] *20:11 2.835 
2 *20:11 *20:13 253.89 
3 *20:13 *20:15 4.5 
4 *20:15 *20:16 359.28 
5 *20:16 *419:io_in[27] 16.425 
*END

*D_NET *21 0.157708
*CONN
*P io_in[28] I
*I *419:io_in[28] I *D wrapped_mppt
*CAP
1 io_in[28] 0.000167681
2 *419:io_in[28] 0.00126226
3 *21:19 0.004012
4 *21:18 0.00274974
5 *21:16 0.0277065
6 *21:15 0.0277065
7 *21:13 0.0214367
8 *21:11 0.0216044
9 *419:io_in[28] *419:io_in[29] 0.00668995
10 *419:io_in[28] *59:7 0.00289489
11 *419:io_in[28] *96:7 0.000729477
12 *419:io_in[28] *97:15 0.0123365
13 *21:16 *73:13 0
14 *21:16 *111:13 0
15 *21:19 *45:16 0.00223811
16 *21:19 *92:10 0.0261735
*RES
1 io_in[28] *21:11 1.755 
2 *21:11 *21:13 208.71 
3 *21:13 *21:15 4.5 
4 *21:15 *21:16 276.57 
5 *21:16 *21:18 4.5 
6 *21:18 *21:19 47.61 
7 *21:19 *419:io_in[28] 35.325 
*END

*D_NET *22 0.150379
*CONN
*P io_in[29] I
*I *419:io_in[29] I *D wrapped_mppt
*CAP
1 io_in[29] 0.00188969
2 *419:io_in[29] 0.000976469
3 *22:11 0.0220687
4 *22:10 0.0210923
5 *22:8 0.0223083
6 *22:7 0.024198
7 *419:io_in[29] *60:9 0.000272355
8 *419:io_in[29] *96:7 0.000994287
9 *419:io_in[29] *97:15 0.000742903
10 *419:io_in[29] *114:8 0.000208528
11 *22:11 *55:10 0.00431006
12 *22:11 *74:10 0.0310154
13 *419:io_in[27] *419:io_in[29] 0
14 *419:io_in[28] *419:io_in[29] 0.00668995
15 *2:11 *419:io_in[29] 0
16 *11:16 *22:11 0.0136121
*RES
1 io_in[29] *22:7 24.165 
2 *22:7 *22:8 222.75 
3 *22:8 *22:10 4.5 
4 *22:10 *22:11 236.43 
5 *22:11 *419:io_in[29] 33.255 
*END

*D_NET *23 0.33327
*CONN
*P io_in[2] I
*I *419:io_in[2] I *D wrapped_mppt
*CAP
1 io_in[2] 0.000271078
2 *419:io_in[2] 0.00023183
3 *23:11 0.0667134
4 *23:10 0.0664815
5 *23:8 0.0159422
6 *23:7 0.0162133
7 *23:8 *32:8 0.109678
8 *23:11 *27:11 0.0463155
9 *23:11 *31:19 0.000186487
10 *23:11 *41:15 0.00105689
11 *23:11 *45:15 0.00155424
12 *23:11 *68:10 0.00627904
13 *23:11 *81:12 0.000808207
14 *23:11 *85:13 0.000211377
15 *23:11 *105:8 0.00132629
*RES
1 io_in[2] *23:7 6.885 
2 *23:7 *23:8 230.49 
3 *23:8 *23:10 4.5 
4 *23:10 *23:11 760.77 
5 *23:11 *419:io_in[2] 6.705 
*END

*D_NET *24 0.160637
*CONN
*P io_in[30] I
*I *419:io_in[30] I *D wrapped_mppt
*CAP
1 io_in[30] 0.00122341
2 *419:io_in[30] 0.000929727
3 *24:11 0.0197074
4 *24:10 0.0187777
5 *24:8 0.0146299
6 *24:7 0.0158533
7 *419:io_in[30] *60:9 0.0122138
8 *419:io_in[30] *62:7 0.000253175
9 *419:io_in[30] *98:9 0.00481416
10 *419:io_in[30] *114:8 0.000117863
11 *24:11 *35:13 0
12 *24:11 *48:10 0.0167237
13 *24:11 *97:16 0.0553933
14 *2:11 *419:io_in[30] 0
*RES
1 io_in[30] *24:7 16.065 
2 *24:7 *24:8 146.07 
3 *24:8 *24:10 4.5 
4 *24:10 *24:11 247.59 
5 *24:11 *419:io_in[30] 40.455 
*END

*D_NET *25 0.123241
*CONN
*P io_in[31] I
*I *419:io_in[31] I *D wrapped_mppt
*CAP
1 io_in[31] 0.00225074
2 *419:io_in[31] 0.00232073
3 *25:19 0.0211571
4 *25:18 0.0188363
5 *25:16 0.00661999
6 *25:15 0.00887073
7 *419:io_in[31] *63:12 0.000742903
8 *419:io_in[31] *63:15 0.00285525
9 *419:io_in[31] *100:9 0.000366976
10 *419:io_in[31] *100:11 0.000283096
11 *25:19 *73:16 0.0379857
12 *25:19 *85:16 0.0209512
*RES
1 io_in[31] *25:15 28.125 
2 *25:15 *25:16 66.15 
3 *25:16 *25:18 4.5 
4 *25:18 *25:19 240.03 
5 *25:19 *419:io_in[31] 40.995 
*END

*D_NET *26 0.087979
*CONN
*P io_in[32] I
*I *419:io_in[32] I *D wrapped_mppt
*CAP
1 io_in[32] 0.00345158
2 *419:io_in[32] 0.00143853
3 *26:19 0.0209556
4 *26:18 0.0229687
5 *419:io_in[32] *41:19 0.000223766
6 *419:io_in[32] *101:7 0.00771084
7 *419:io_in[32] *102:7 0
8 *26:19 *49:10 0.0190861
9 *26:19 *93:14 0.0121438
*RES
1 io_in[32] *26:18 43.875 
2 *26:18 *26:19 242.37 
3 *26:19 *419:io_in[32] 27.765 
*END

*D_NET *27 0.176468
*CONN
*P io_in[33] I
*I *419:io_in[33] I *D wrapped_mppt
*CAP
1 io_in[33] 0.0030003
2 *419:io_in[33] 8.73892e-05
3 *27:11 0.0175191
4 *27:10 0.0174317
5 *27:8 0.0030003
6 *419:io_in[33] *65:7 0.000237192
7 *419:io_in[33] *102:7 0.000237192
8 *27:8 *103:14 0.0203154
9 *27:11 *105:8 0.0683236
10 *23:11 *27:11 0.0463155
*RES
1 io_in[33] *27:8 47.475 
2 *27:8 *27:10 4.5 
3 *27:10 *27:11 260.73 
4 *27:11 *419:io_in[33] 6.885 
*END

*D_NET *28 0.153008
*CONN
*P io_in[34] I
*I *419:io_in[34] I *D wrapped_mppt
*CAP
1 io_in[34] 0.00112395
2 *419:io_in[34] 0
3 *28:11 0.0169292
4 *28:10 0.0169292
5 *28:8 0.0102733
6 *28:7 0.0113973
7 *28:11 *34:11 0.0433323
8 *28:11 *39:7 3.73018e-05
9 *28:11 *61:10 0.000186509
10 *28:11 *66:5 0.0082064
11 *28:11 *70:10 0.000932547
12 *28:11 *72:5 0.042835
13 *28:11 *77:7 0.000414464